# generated using pymatgen
data_F2
_symmetry_space_group_name_H-M   'P 1'
_cell_length_a   3.00731220
_cell_length_b   3.00731220
_cell_length_c   6.62161091
_cell_angle_alpha   85.86195236
_cell_angle_beta   94.13804764
_cell_angle_gamma   116.43108290
_symmetry_Int_Tables_number   1
_chemical_formula_structural   F2
_chemical_formula_sum   F4
_cell_volume   53.43199919
_cell_formula_units_Z   2
loop_
 _symmetry_equiv_pos_site_id
 _symmetry_equiv_pos_as_xyz
  1  'x, y, z'
loop_
 _atom_type_symbol
 _atom_type_oxidation_number
  F0+  0.0
loop_
 _atom_site_type_symbol
 _atom_site_label
 _atom_site_symmetry_multiplicity
 _atom_site_fract_x
 _atom_site_fract_y
 _atom_site_fract_z
 _atom_site_occupancy
  F0+  F0  1  0.59583288  0.08466402  0.09795550  1
  F0+  F1  1  0.40416712  0.91533598  0.90204450  1
  F0+  F2  1  0.08466402  0.59583288  0.40204450  1
  F0+  F3  1  0.91533598  0.40416712  0.59795550  1
